Version 4
SHEET 1 880 680
SYMBOL res 16 96 R0
SYMATTR InstName R1
SYMATTR Value 10
SYMBOL cap 96 112 R270
SYMATTR InstName C1
SYMATTR Value 10µF
